* NGSPICE file created from sg13cmos5l_caravel_openframe_final.ext - technology: ihp-sg13cmos5l

.subckt sg13cmos5l_DCPDiode anode cathode guard anode_uq0
X0 anode_uq0 cathode dpantenna l=1.26u w=27.78u
X1 anode cathode dpantenna l=1.26u w=27.78u
.ends

.subckt sg13cmos5l_Clamp_P2N2D iovss iovdd pad gate
X0 iovdd gate pad iovdd sg13_hv_pmos ad=3.1302p pd=14.26u as=3.9294p ps=7.84u w=6.66u l=0.6u
X1 iovdd gate pad iovdd sg13_hv_pmos ad=3.1302p pd=14.26u as=3.9294p ps=7.84u w=6.66u l=0.6u
X2 pad gate iovdd iovdd sg13_hv_pmos ad=3.9294p pd=7.84u as=3.1302p ps=14.26u w=6.66u l=0.6u
X3 gate iovdd dpantenna l=0.48u w=0.48u
X4 pad gate iovdd iovdd sg13_hv_pmos ad=3.9294p pd=7.84u as=3.1302p ps=14.26u w=6.66u l=0.6u
.ends

.subckt sg13cmos5l_Clamp_N2N2D iovss pad gate w_n124_n124#
X0 iovss gate pad iovss sg13_hv_nmos ad=2.068p pd=9.74u as=2.596p ps=5.58u w=4.4u l=0.6u
X1 pad gate iovss iovss sg13_hv_nmos ad=2.596p pd=5.58u as=2.068p ps=9.74u w=4.4u l=0.6u
X2 iovss gate dantenna l=0.78u w=0.78u
.ends

.subckt sg13cmos5l_SecondaryProtection iovdd iovss pad core
X0 core iovdd dpantenna l=0.64u w=4.98u
X1 core pad iovss rppd l=2u w=1u
X2 iovss core dantenna l=3.1u w=0.64u
.ends

.subckt sg13cmos5l_LevelDown vdd iovdd vss pad core
Xsg13cmos5l_SecondaryProtection_0 iovdd vss pad sg13cmos5l_SecondaryProtection_0/core
+ sg13cmos5l_SecondaryProtection
X0 vdd a_89_1790# core vdd sg13_lv_pmos ad=1.615p pd=10.18u as=1.615p ps=10.18u w=4.75u l=0.13u
X1 a_89_1790# sg13cmos5l_SecondaryProtection_0/core vss vss sg13_hv_nmos ad=0.901p pd=5.98u as=0.901p ps=5.98u w=2.65u l=0.45u
X2 vss a_89_1790# core vss sg13_lv_nmos ad=0.935p pd=6.18u as=0.935p ps=6.18u w=2.75u l=0.13u
X3 a_89_1790# sg13cmos5l_SecondaryProtection_0/core vdd vdd sg13_hv_pmos ad=1.581p pd=9.98u as=1.581p ps=9.98u w=4.65u l=0.45u
.ends

.subckt sg13cmos5l_io_inv_x1 vdd vss i nq
X0 nq i vss vss sg13_lv_nmos ad=1.3362p pd=8.54u as=1.3362p ps=8.54u w=3.93u l=0.13u
X1 nq i vdd vdd sg13_lv_pmos ad=1.4994p pd=9.5u as=1.4994p ps=9.5u w=4.41u l=0.13u
.ends

.subckt sg13cmos5l_LevelUp vdd iovdd vss i o
X0 a_89_470# i vss vss sg13_hv_nmos ad=0.646p pd=4.48u as=0.361p ps=2.28u w=1.9u l=0.45u
X1 iovdd a_89_470# a_21_506# iovdd sg13_hv_pmos ad=57f pd=0.68u as=0.102p ps=1.28u w=0.3u l=0.45u
X2 vdd i a_21_1826# vdd sg13_lv_pmos ad=1.615p pd=10.18u as=1.615p ps=10.18u w=4.75u l=0.13u
X3 a_89_470# a_21_506# iovdd iovdd sg13_hv_pmos ad=0.102p pd=1.28u as=57f ps=0.68u w=0.3u l=0.45u
X4 vss i a_21_1826# vss sg13_lv_nmos ad=0.935p pd=6.18u as=0.935p ps=6.18u w=2.75u l=0.13u
X5 vss a_21_1826# a_21_506# vss sg13_hv_nmos ad=0.361p pd=2.28u as=0.646p ps=4.48u w=1.9u l=0.45u
X6 o a_89_470# vss vss sg13_hv_nmos ad=0.646p pd=4.48u as=0.646p ps=4.48u w=1.9u l=0.45u
X7 o a_89_470# iovdd iovdd sg13_hv_pmos ad=1.326p pd=8.48u as=1.326p ps=8.48u w=3.9u l=0.45u
.ends

.subckt sg13cmos5l_io_nor2_x1 vdd vss nq i0 i1
X0 vss i1 nq vss sg13_lv_nmos ad=1.4148p pd=8.58u as=0.7467p ps=4.31u w=3.93u l=0.13u
X1 nq i0 vss vss sg13_lv_nmos ad=0.7467p pd=4.31u as=1.3362p ps=8.54u w=3.93u l=0.13u
X2 nq i1 a_115_1276# vdd sg13_lv_pmos ad=1.5876p pd=9.54u as=0.8379p ps=4.79u w=4.41u l=0.13u
X3 a_115_1276# i0 vdd vdd sg13_lv_pmos ad=0.8379p pd=4.79u as=1.4994p ps=9.5u w=4.41u l=0.13u
.ends

.subckt sg13cmos5l_io_nand2_x1 vdd vss nq i0 i1
X0 nq i1 a_115_242# vss sg13_lv_nmos ad=1.4148p pd=8.58u as=0.7467p ps=4.31u w=3.93u l=0.13u
X1 a_115_242# i0 vss vss sg13_lv_nmos ad=0.7467p pd=4.31u as=1.3362p ps=8.54u w=3.93u l=0.13u
X2 vdd i1 nq vdd sg13_lv_pmos ad=1.5876p pd=9.54u as=0.8379p ps=4.79u w=4.41u l=0.13u
X3 nq i0 vdd vdd sg13_lv_pmos ad=0.8379p pd=4.79u as=1.4994p ps=9.5u w=4.41u l=0.13u
.ends

.subckt sg13cmos5l_GateDecode iovdd core en ngate pgate vdd vss
Xsg13cmos5l_io_inv_x1_0 vdd vss en sg13cmos5l_io_inv_x1_0/nq sg13cmos5l_io_inv_x1
Xsg13cmos5l_LevelUp_0 vdd iovdd vss sg13cmos5l_LevelUp_0/i ngate sg13cmos5l_LevelUp
Xsg13cmos5l_LevelUp_1 vdd iovdd vss sg13cmos5l_LevelUp_1/i pgate sg13cmos5l_LevelUp
Xsg13cmos5l_io_nor2_x1_0 vdd vss sg13cmos5l_LevelUp_0/i core sg13cmos5l_io_inv_x1_0/nq
+ sg13cmos5l_io_nor2_x1
Xsg13cmos5l_io_nand2_x1_0 vdd vss sg13cmos5l_LevelUp_1/i core en sg13cmos5l_io_nand2_x1
.ends

.subckt sg13cmos5l_DCNDiode anode cathode guard cathode_uq0
X0 anode cathode_uq0 dantenna l=1.26u w=27.78u
X1 anode cathode dantenna l=1.26u w=27.78u
.ends

.subckt sg13cmos5l_IOPadInOut4mA vdd iovss iovdd p2c pad vss iovdd_uq0 c2p_en c2p
+ sg13cmos5l_DCNDiode_0/guard
Xsg13cmos5l_DCPDiode_0 pad iovdd_uq0 vss pad sg13cmos5l_DCPDiode
Xsg13cmos5l_Clamp_P2N2D_0 vss iovdd_uq0 pad sg13cmos5l_GateDecode_0/pgate sg13cmos5l_Clamp_P2N2D
Xsg13cmos5l_Clamp_N2N2D_0 vss pad sg13cmos5l_GateDecode_0/ngate sg13cmos5l_DCNDiode_0/guard
+ sg13cmos5l_Clamp_N2N2D
Xsg13cmos5l_LevelDown_0 vdd iovdd vss pad p2c sg13cmos5l_LevelDown
Xsg13cmos5l_GateDecode_0 iovdd c2p c2p_en sg13cmos5l_GateDecode_0/ngate sg13cmos5l_GateDecode_0/pgate
+ vdd vss sg13cmos5l_GateDecode
Xsg13cmos5l_DCNDiode_0 vss pad sg13cmos5l_DCNDiode_0/guard pad sg13cmos5l_DCNDiode
.ends

.subckt sg13cmos5l_tiehi L_HI VDD VSS
X0 L_HI a_222_366# VDD VDD sg13_lv_pmos ad=0.3927p pd=2.99u as=0.76727p ps=3.885u w=1.155u l=0.13u
X1 VDD a_23_195# a_23_429# VDD sg13_lv_pmos ad=0.76727p pd=3.885u as=0.2442p ps=2.06u w=0.66u l=0.13u
X2 a_222_366# a_23_429# VSS VSS sg13_lv_nmos ad=0.27427p pd=2.28u as=0.49637p ps=3.565u w=0.795u l=0.13u
X3 VSS a_23_195# a_23_195# VSS sg13_lv_nmos ad=0.49637p pd=3.565u as=0.111p ps=1.34u w=0.3u l=0.13u
.ends

.subckt sg13cmos5l_tielo L_LO VDD VSS
X0 L_LO a_223_58# VSS VSS sg13_lv_nmos ad=0.2992p pd=2.44u as=0.60422p ps=3.6u w=0.88u l=0.13u
X1 VDD a_59_418# a_59_418# VDD sg13_lv_pmos ad=0.62572p pd=3.785u as=0.102p ps=1.28u w=0.3u l=0.13u
X2 a_223_58# a_59_195# VDD VDD sg13_lv_pmos ad=0.3553p pd=2.77u as=0.62572p ps=3.785u w=1.045u l=0.13u
X3 VSS a_59_418# a_59_195# VSS sg13_lv_nmos ad=0.60422p pd=3.6u as=0.1309p ps=1.45u w=0.385u l=0.13u
.ends

.subckt sg13cmos5l_decap_4 VDD VSS
X0 VDD VSS VDD VDD sg13_lv_pmos ad=0.34p pd=2.68u as=0 ps=0 w=1u l=1u
X1 VSS VDD VSS VSS sg13_lv_nmos ad=0.1428p pd=1.52u as=0 ps=0 w=0.42u l=1u
.ends

.subckt sg13cmos5l_buf_8 X A VDD VSS
X0 VSS A a_27_118# VSS sg13_lv_nmos ad=0.1406p pd=1.12u as=0.1406p ps=1.12u w=0.74u l=0.13u
X1 VSS A a_27_118# VSS sg13_lv_nmos ad=0.1406p pd=1.12u as=0.2553p ps=2.17u w=0.74u l=0.13u
X2 VDD A a_27_118# VDD sg13_lv_pmos ad=0.2128p pd=1.5u as=0.2128p ps=1.5u w=1.12u l=0.13u
X3 X a_27_118# VSS VSS sg13_lv_nmos ad=0.1406p pd=1.12u as=0.1406p ps=1.12u w=0.74u l=0.13u
X4 VDD A a_27_118# VDD sg13_lv_pmos ad=0.2128p pd=1.5u as=0.3808p ps=2.92u w=1.12u l=0.13u
X5 X a_27_118# VDD VDD sg13_lv_pmos ad=0.2128p pd=1.5u as=0.2128p ps=1.5u w=1.12u l=0.13u
X6 VSS a_27_118# X VSS sg13_lv_nmos ad=0.1406p pd=1.12u as=0.1406p ps=1.12u w=0.74u l=0.13u
X7 VDD a_27_118# X VDD sg13_lv_pmos ad=0.2128p pd=1.5u as=0.2128p ps=1.5u w=1.12u l=0.13u
X8 X a_27_118# VSS VSS sg13_lv_nmos ad=0.1406p pd=1.12u as=0.1406p ps=1.12u w=0.74u l=0.13u
X9 X a_27_118# VDD VDD sg13_lv_pmos ad=0.2128p pd=1.5u as=0.2128p ps=1.5u w=1.12u l=0.13u
X10 VSS a_27_118# X VSS sg13_lv_nmos ad=0.1406p pd=1.12u as=0.1406p ps=1.12u w=0.74u l=0.13u
X11 X a_27_118# VSS VSS sg13_lv_nmos ad=0.1406p pd=1.12u as=0.1406p ps=1.12u w=0.74u l=0.13u
X12 VDD a_27_118# X VDD sg13_lv_pmos ad=0.2128p pd=1.5u as=0.2128p ps=1.5u w=1.12u l=0.13u
X13 X a_27_118# VDD VDD sg13_lv_pmos ad=0.2128p pd=1.5u as=0.2128p ps=1.5u w=1.12u l=0.13u
X14 VSS a_27_118# X VSS sg13_lv_nmos ad=0.1406p pd=1.12u as=0.1406p ps=1.12u w=0.74u l=0.13u
X15 VDD a_27_118# X VDD sg13_lv_pmos ad=0.2128p pd=1.5u as=0.2128p ps=1.5u w=1.12u l=0.13u
X16 X a_27_118# VSS VSS sg13_lv_nmos ad=0.1406p pd=1.12u as=0.1406p ps=1.12u w=0.74u l=0.13u
X17 VSS a_27_118# X VSS sg13_lv_nmos ad=0.2516p pd=2.16u as=0.1406p ps=1.12u w=0.74u l=0.13u
X18 X a_27_118# VDD VDD sg13_lv_pmos ad=0.2128p pd=1.5u as=0.2128p ps=1.5u w=1.12u l=0.13u
X19 VDD a_27_118# X VDD sg13_lv_pmos ad=0.3864p pd=2.93u as=0.2128p ps=1.5u w=1.12u l=0.13u
X20 a_27_118# A VSS VSS sg13_lv_nmos ad=0.1406p pd=1.12u as=0.1406p ps=1.12u w=0.74u l=0.13u
X21 a_27_118# A VDD VDD sg13_lv_pmos ad=0.2128p pd=1.5u as=0.2128p ps=1.5u w=1.12u l=0.13u
.ends

.subckt constant_block one zero vdd vss
Xsg13cmos5l_tiehi_0 sg13cmos5l_buf_8_0/A vdd vss sg13cmos5l_tiehi
Xsg13cmos5l_tielo_0 sg13cmos5l_buf_8_1/A vdd vss sg13cmos5l_tielo
Xsg13cmos5l_decap_4_0 vdd vss sg13cmos5l_decap_4
Xsg13cmos5l_decap_4_1 vdd vss sg13cmos5l_decap_4
Xsg13cmos5l_decap_4_2 vdd vss sg13cmos5l_decap_4
Xsg13cmos5l_buf_8_0 one sg13cmos5l_buf_8_0/A vdd vss sg13cmos5l_buf_8
Xsg13cmos5l_decap_4_3 vdd vss sg13cmos5l_decap_4
Xsg13cmos5l_buf_8_1 zero sg13cmos5l_buf_8_1/A vdd vss sg13cmos5l_buf_8
.ends

.subckt constant_block_vrouted vdd zero one vss
Xconstant_block_0 one zero vdd vss constant_block
.ends

.subckt constant_block_hrouted vdd zero one vss
Xconstant_block_0 one zero vdd vss constant_block
.ends

.subckt sg13cmos5l_IOPadIOVss vss vdd iovdd sg13cmos5l_DCNDiode_0/guard
Xsg13cmos5l_DCPDiode_0 vss iovdd vss vss sg13cmos5l_DCPDiode
Xsg13cmos5l_DCNDiode_0 vss vss sg13cmos5l_DCNDiode_0/guard vss sg13cmos5l_DCNDiode
.ends

.subckt sg13cmos5l_Clamp_P20N0D iovss iovdd pad pad_uq0 pad_uq1 pad_uq2 pad_uq3 pad_uq4
+ pad_uq5 pad_uq6 pad_uq7 pad_uq8
X0 iovdd a_5044_476# pad_uq3 iovdd sg13_hv_pmos ad=2.1312p pd=7.3u as=3.9294p ps=7.84u w=6.66u l=0.6u
X1 pad_uq5 a_5044_476# iovdd iovdd sg13_hv_pmos ad=3.9294p pd=7.84u as=2.1312p ps=7.3u w=6.66u l=0.6u
X2 iovdd a_5044_476# pad_uq1 iovdd sg13_hv_pmos ad=2.1312p pd=7.3u as=3.9294p ps=7.84u w=6.66u l=0.6u
X3 pad_uq7 a_5044_476# iovdd iovdd sg13_hv_pmos ad=3.9294p pd=7.84u as=2.1312p ps=7.3u w=6.66u l=0.6u
X4 pad_uq6 a_5044_476# iovdd iovdd sg13_hv_pmos ad=3.9294p pd=7.84u as=2.1312p ps=7.3u w=6.66u l=0.6u
X5 iovdd a_5044_476# pad_uq2 iovdd sg13_hv_pmos ad=2.1312p pd=7.3u as=3.9294p ps=7.84u w=6.66u l=0.6u
X6 a_5044_476# iovdd iovdd rppd l=12.9u w=0.5u
X7 pad_uq6 a_5044_476# iovdd iovdd sg13_hv_pmos ad=3.9294p pd=7.84u as=2.1312p ps=7.3u w=6.66u l=0.6u
X8 iovdd a_5044_476# pad_uq6 iovdd sg13_hv_pmos ad=2.1312p pd=7.3u as=3.9294p ps=7.84u w=6.66u l=0.6u
X9 pad_uq2 a_5044_476# iovdd iovdd sg13_hv_pmos ad=3.9294p pd=7.84u as=2.1312p ps=7.3u w=6.66u l=0.6u
X10 iovdd a_5044_476# pad iovdd sg13_hv_pmos ad=2.1312p pd=7.3u as=3.9294p ps=7.84u w=6.66u l=0.6u
X11 iovdd a_5044_476# pad_uq6 iovdd sg13_hv_pmos ad=2.1312p pd=7.3u as=3.9294p ps=7.84u w=6.66u l=0.6u
X12 pad_uq2 a_5044_476# iovdd iovdd sg13_hv_pmos ad=3.9294p pd=7.84u as=2.1312p ps=7.3u w=6.66u l=0.6u
X13 iovdd a_5044_476# pad_uq5 iovdd sg13_hv_pmos ad=2.1312p pd=7.3u as=3.9294p ps=7.84u w=6.66u l=0.6u
X14 iovdd a_5044_476# pad_uq1 iovdd sg13_hv_pmos ad=2.1312p pd=7.3u as=3.9294p ps=7.84u w=6.66u l=0.6u
X15 pad_uq3 a_5044_476# iovdd iovdd sg13_hv_pmos ad=3.9294p pd=7.84u as=2.1312p ps=7.3u w=6.66u l=0.6u
X16 pad_uq1 a_5044_476# iovdd iovdd sg13_hv_pmos ad=3.9294p pd=7.84u as=2.1312p ps=7.3u w=6.66u l=0.6u
X17 iovdd a_5044_476# pad_uq7 iovdd sg13_hv_pmos ad=2.1312p pd=7.3u as=3.9294p ps=7.84u w=6.66u l=0.6u
X18 pad_uq0 a_5044_476# iovdd iovdd sg13_hv_pmos ad=3.9294p pd=7.84u as=2.1312p ps=7.3u w=6.66u l=0.6u
X19 iovdd a_5044_476# pad_uq3 iovdd sg13_hv_pmos ad=2.1312p pd=7.3u as=3.9294p ps=7.84u w=6.66u l=0.6u
X20 pad_uq7 a_5044_476# iovdd iovdd sg13_hv_pmos ad=3.9294p pd=7.84u as=2.1312p ps=7.3u w=6.66u l=0.6u
X21 iovdd a_5044_476# pad_uq0 iovdd sg13_hv_pmos ad=3.1302p pd=14.26u as=3.9294p ps=7.84u w=6.66u l=0.6u
X22 pad_uq8 a_5044_476# iovdd iovdd sg13_hv_pmos ad=3.9294p pd=7.84u as=3.1302p ps=14.26u w=6.66u l=0.6u
X23 pad_uq8 a_5044_476# iovdd iovdd sg13_hv_pmos ad=3.9294p pd=7.84u as=3.1302p ps=14.26u w=6.66u l=0.6u
X24 iovdd a_5044_476# pad iovdd sg13_hv_pmos ad=2.1312p pd=7.3u as=3.9294p ps=7.84u w=6.66u l=0.6u
X25 pad_uq4 a_5044_476# iovdd iovdd sg13_hv_pmos ad=3.9294p pd=7.84u as=2.1312p ps=7.3u w=6.66u l=0.6u
X26 iovdd a_5044_476# pad_uq7 iovdd sg13_hv_pmos ad=2.1312p pd=7.3u as=3.9294p ps=7.84u w=6.66u l=0.6u
X27 pad_uq3 a_5044_476# iovdd iovdd sg13_hv_pmos ad=3.9294p pd=7.84u as=2.1312p ps=7.3u w=6.66u l=0.6u
X28 iovdd a_5044_476# pad_uq8 iovdd sg13_hv_pmos ad=2.1312p pd=7.3u as=3.9294p ps=7.84u w=6.66u l=0.6u
X29 pad_uq5 a_5044_476# iovdd iovdd sg13_hv_pmos ad=3.9294p pd=7.84u as=2.1312p ps=7.3u w=6.66u l=0.6u
X30 pad_uq0 a_5044_476# iovdd iovdd sg13_hv_pmos ad=3.9294p pd=7.84u as=2.1312p ps=7.3u w=6.66u l=0.6u
X31 iovdd a_5044_476# pad_uq0 iovdd sg13_hv_pmos ad=3.1302p pd=14.26u as=3.9294p ps=7.84u w=6.66u l=0.6u
X32 pad a_5044_476# iovdd iovdd sg13_hv_pmos ad=3.9294p pd=7.84u as=2.1312p ps=7.3u w=6.66u l=0.6u
X33 iovdd a_5044_476# pad_uq8 iovdd sg13_hv_pmos ad=2.1312p pd=7.3u as=3.9294p ps=7.84u w=6.66u l=0.6u
X34 iovdd a_5044_476# pad_uq4 iovdd sg13_hv_pmos ad=2.1312p pd=7.3u as=3.9294p ps=7.84u w=6.66u l=0.6u
X35 iovdd a_5044_476# pad_uq2 iovdd sg13_hv_pmos ad=2.1312p pd=7.3u as=3.9294p ps=7.84u w=6.66u l=0.6u
X36 iovdd a_5044_476# pad_uq4 iovdd sg13_hv_pmos ad=2.1312p pd=7.3u as=3.9294p ps=7.84u w=6.66u l=0.6u
X37 pad_uq4 a_5044_476# iovdd iovdd sg13_hv_pmos ad=3.9294p pd=7.84u as=2.1312p ps=7.3u w=6.66u l=0.6u
X38 pad a_5044_476# iovdd iovdd sg13_hv_pmos ad=3.9294p pd=7.84u as=2.1312p ps=7.3u w=6.66u l=0.6u
X39 iovdd a_5044_476# pad_uq5 iovdd sg13_hv_pmos ad=2.1312p pd=7.3u as=3.9294p ps=7.84u w=6.66u l=0.6u
X40 pad_uq1 a_5044_476# iovdd iovdd sg13_hv_pmos ad=3.9294p pd=7.84u as=2.1312p ps=7.3u w=6.66u l=0.6u
.ends

.subckt sg13cmos5l_Clamp_N20N0D iovss pad pad_uq0 pad_uq1 pad_uq2 pad_uq3 pad_uq4
+ pad_uq5 pad_uq6 pad_uq7 pad_uq8 w_n124_n124#
X0 pad_uq5 a_5044_476# iovss iovss sg13_hv_nmos ad=2.596p pd=5.58u as=1.408p ps=5.04u w=4.4u l=0.6u
X1 iovss a_5044_476# pad_uq1 iovss sg13_hv_nmos ad=1.408p pd=5.04u as=2.596p ps=5.58u w=4.4u l=0.6u
X2 pad_uq6 a_5044_476# iovss iovss sg13_hv_nmos ad=2.596p pd=5.58u as=1.408p ps=5.04u w=4.4u l=0.6u
X3 iovss a_5044_476# pad_uq2 iovss sg13_hv_nmos ad=1.408p pd=5.04u as=2.596p ps=5.58u w=4.4u l=0.6u
X4 a_5044_476# iovss iovss rppd l=3.54u w=0.5u
X5 iovss a_5044_476# pad_uq6 iovss sg13_hv_nmos ad=1.408p pd=5.04u as=2.596p ps=5.58u w=4.4u l=0.6u
X6 pad_uq2 a_5044_476# iovss iovss sg13_hv_nmos ad=2.596p pd=5.58u as=1.408p ps=5.04u w=4.4u l=0.6u
X7 pad_uq3 a_5044_476# iovss iovss sg13_hv_nmos ad=2.596p pd=5.58u as=1.408p ps=5.04u w=4.4u l=0.6u
X8 iovss a_5044_476# pad_uq7 iovss sg13_hv_nmos ad=1.408p pd=5.04u as=2.596p ps=5.58u w=4.4u l=0.6u
X9 pad_uq0 a_5044_476# iovss iovss sg13_hv_nmos ad=2.596p pd=5.58u as=1.408p ps=5.04u w=4.4u l=0.6u
X10 iovss a_5044_476# pad_uq3 iovss sg13_hv_nmos ad=1.408p pd=5.04u as=2.596p ps=5.58u w=4.4u l=0.6u
X11 pad_uq7 a_5044_476# iovss iovss sg13_hv_nmos ad=2.596p pd=5.58u as=1.408p ps=5.04u w=4.4u l=0.6u
X12 iovss a_5044_476# pad_uq0 iovss sg13_hv_nmos ad=2.068p pd=9.74u as=2.596p ps=5.58u w=4.4u l=0.6u
X13 pad_uq8 a_5044_476# iovss iovss sg13_hv_nmos ad=2.596p pd=5.58u as=2.068p ps=9.74u w=4.4u l=0.6u
X14 iovss a_5044_476# pad iovss sg13_hv_nmos ad=1.408p pd=5.04u as=2.596p ps=5.58u w=4.4u l=0.6u
X15 pad_uq4 a_5044_476# iovss iovss sg13_hv_nmos ad=2.596p pd=5.58u as=1.408p ps=5.04u w=4.4u l=0.6u
X16 iovss a_5044_476# pad_uq8 iovss sg13_hv_nmos ad=1.408p pd=5.04u as=2.596p ps=5.58u w=4.4u l=0.6u
X17 pad a_5044_476# iovss iovss sg13_hv_nmos ad=2.596p pd=5.58u as=1.408p ps=5.04u w=4.4u l=0.6u
X18 iovss a_5044_476# pad_uq4 iovss sg13_hv_nmos ad=1.408p pd=5.04u as=2.596p ps=5.58u w=4.4u l=0.6u
X19 iovss a_5044_476# pad_uq5 iovss sg13_hv_nmos ad=1.408p pd=5.04u as=2.596p ps=5.58u w=4.4u l=0.6u
X20 pad_uq1 a_5044_476# iovss iovss sg13_hv_nmos ad=2.596p pd=5.58u as=1.408p ps=5.04u w=4.4u l=0.6u
.ends

.subckt sg13cmos5l_IOPadAnalog vdd iovss iovdd pad padres iovdd_uq0 sg13cmos5l_DCNDiode_0/guard
+ vss
Xsg13cmos5l_SecondaryProtection_0 iovdd vss pad padres sg13cmos5l_SecondaryProtection
Xsg13cmos5l_DCPDiode_0 pad iovdd_uq0 vss pad sg13cmos5l_DCPDiode
Xsg13cmos5l_Clamp_P20N0D_0 vss iovdd_uq0 pad pad pad pad pad pad pad pad pad pad sg13cmos5l_Clamp_P20N0D
Xsg13cmos5l_DCNDiode_0 vss pad sg13cmos5l_DCNDiode_0/guard pad sg13cmos5l_DCNDiode
Xsg13cmos5l_Clamp_N20N0D_0 vss pad pad pad pad pad pad pad pad pad pad sg13cmos5l_DCNDiode_0/guard
+ sg13cmos5l_Clamp_N20N0D
.ends

.subckt sg13cmos5l_Clamp_N43N43D4R iovss pad gate pad_uq0 pad_uq1 pad_uq2 pad_uq3
+ pad_uq4 pad_uq5 pad_uq6 pad_uq7 pad_uq8 pad_uq9 pad_uq10 pad_uq11 pad_uq12 pad_uq13
+ pad_uq14 pad_uq15 pad_uq16 pad_uq17 pad_uq18 pad_uq19 pad_uq20 w_n124_n124#
X0 iovss gate pad_uq1 iovss sg13_hv_nmos ad=1.408p pd=5.04u as=2.596p ps=5.58u w=4.4u l=0.6u
X1 iovss gate pad_uq19 iovss sg13_hv_nmos ad=1.408p pd=5.04u as=2.596p ps=5.58u w=4.4u l=0.6u
X2 iovss gate pad_uq15 iovss sg13_hv_nmos ad=1.408p pd=5.04u as=2.596p ps=5.58u w=4.4u l=0.6u
X3 iovss gate pad_uq13 iovss sg13_hv_nmos ad=1.408p pd=5.04u as=2.596p ps=5.58u w=4.4u l=0.6u
X4 pad_uq17 gate iovss iovss sg13_hv_nmos ad=2.596p pd=5.58u as=1.408p ps=5.04u w=4.4u l=0.6u
X5 pad_uq15 gate iovss iovss sg13_hv_nmos ad=2.596p pd=5.58u as=1.408p ps=5.04u w=4.4u l=0.6u
X6 pad_uq0 gate iovss iovss sg13_hv_nmos ad=3.256p pd=10.28u as=1.408p ps=5.04u w=4.4u l=0.6u
X7 pad_uq12 gate iovss iovss sg13_hv_nmos ad=2.596p pd=5.58u as=1.408p ps=5.04u w=4.4u l=0.6u
X8 pad_uq5 gate iovss iovss sg13_hv_nmos ad=2.596p pd=5.58u as=1.408p ps=5.04u w=4.4u l=0.6u
X9 iovss gate pad_uq16 iovss sg13_hv_nmos ad=1.408p pd=5.04u as=2.596p ps=5.58u w=4.4u l=0.6u
X10 iovss gate pad_uq12 iovss sg13_hv_nmos ad=1.408p pd=5.04u as=2.596p ps=5.58u w=4.4u l=0.6u
X11 iovss gate pad_uq3 iovss sg13_hv_nmos ad=1.408p pd=5.04u as=2.596p ps=5.58u w=4.4u l=0.6u
X12 iovss gate pad_uq18 iovss sg13_hv_nmos ad=1.408p pd=5.04u as=2.596p ps=5.58u w=4.4u l=0.6u
X13 pad_uq6 gate iovss iovss sg13_hv_nmos ad=2.596p pd=5.58u as=1.408p ps=5.04u w=4.4u l=0.6u
X14 pad gate iovss iovss sg13_hv_nmos ad=2.596p pd=5.58u as=1.408p ps=5.04u w=4.4u l=0.6u
X15 iovss gate pad_uq5 iovss sg13_hv_nmos ad=1.408p pd=5.04u as=2.596p ps=5.58u w=4.4u l=0.6u
X16 iovss gate pad_uq20 iovss sg13_hv_nmos ad=1.408p pd=5.04u as=2.596p ps=5.58u w=4.4u l=0.6u
X17 pad_uq14 gate iovss iovss sg13_hv_nmos ad=2.596p pd=5.58u as=1.408p ps=5.04u w=4.4u l=0.6u
X18 pad_uq20 gate iovss iovss sg13_hv_nmos ad=2.596p pd=5.58u as=2.068p ps=9.74u w=4.4u l=0.6u
X19 pad_uq10 gate iovss iovss sg13_hv_nmos ad=2.596p pd=5.58u as=1.408p ps=5.04u w=4.4u l=0.6u
X20 iovss gate pad_uq9 iovss sg13_hv_nmos ad=1.408p pd=5.04u as=2.596p ps=5.58u w=4.4u l=0.6u
X21 pad_uq16 gate iovss iovss sg13_hv_nmos ad=2.596p pd=5.58u as=1.408p ps=5.04u w=4.4u l=0.6u
X22 iovss gate pad_uq8 iovss sg13_hv_nmos ad=1.408p pd=5.04u as=2.596p ps=5.58u w=4.4u l=0.6u
X23 iovss gate pad_uq6 iovss sg13_hv_nmos ad=1.408p pd=5.04u as=2.596p ps=5.58u w=4.4u l=0.6u
X24 iovss gate pad_uq14 iovss sg13_hv_nmos ad=1.408p pd=5.04u as=2.596p ps=5.58u w=4.4u l=0.6u
X25 pad_uq11 gate iovss iovss sg13_hv_nmos ad=2.596p pd=5.58u as=1.408p ps=5.04u w=4.4u l=0.6u
X26 iovss gate pad_uq2 iovss sg13_hv_nmos ad=1.408p pd=5.04u as=2.596p ps=5.58u w=4.4u l=0.6u
X27 iovss gate pad_uq10 iovss sg13_hv_nmos ad=1.408p pd=5.04u as=2.596p ps=5.58u w=4.4u l=0.6u
X28 pad_uq13 gate iovss iovss sg13_hv_nmos ad=2.596p pd=5.58u as=1.408p ps=5.04u w=4.4u l=0.6u
X29 pad_uq8 gate iovss iovss sg13_hv_nmos ad=2.596p pd=5.58u as=1.408p ps=5.04u w=4.4u l=0.6u
X30 pad gate iovss iovss sg13_hv_nmos ad=2.596p pd=5.58u as=1.408p ps=5.04u w=4.4u l=0.6u
X31 iovss gate pad_uq17 iovss sg13_hv_nmos ad=1.408p pd=5.04u as=2.596p ps=5.58u w=4.4u l=0.6u
X32 iovss gate pad_uq11 iovss sg13_hv_nmos ad=1.408p pd=5.04u as=2.596p ps=5.58u w=4.4u l=0.6u
X33 iovss gate pad_uq13 iovss sg13_hv_nmos ad=1.408p pd=5.04u as=2.596p ps=5.58u w=4.4u l=0.6u
X34 iovss gate pad_uq7 iovss sg13_hv_nmos ad=1.408p pd=5.04u as=2.596p ps=5.58u w=4.4u l=0.6u
X35 pad_uq1 gate iovss iovss sg13_hv_nmos ad=2.596p pd=5.58u as=1.408p ps=5.04u w=4.4u l=0.6u
X36 pad_uq1 gate iovss iovss sg13_hv_nmos ad=2.596p pd=5.58u as=1.408p ps=5.04u w=4.4u l=0.6u
X37 iovss gate pad_uq4 iovss sg13_hv_nmos ad=1.408p pd=5.04u as=2.596p ps=5.58u w=4.4u l=0.6u
X38 iovss gate pad_uq19 iovss sg13_hv_nmos ad=1.408p pd=5.04u as=2.596p ps=5.58u w=4.4u l=0.6u
X39 iovss gate pad_uq5 iovss sg13_hv_nmos ad=1.408p pd=5.04u as=2.596p ps=5.58u w=4.4u l=0.6u
X40 iovss gate pad_uq15 iovss sg13_hv_nmos ad=1.408p pd=5.04u as=2.596p ps=5.58u w=4.4u l=0.6u
X41 pad_uq3 gate iovss iovss sg13_hv_nmos ad=2.596p pd=5.58u as=1.408p ps=5.04u w=4.4u l=0.6u
X42 pad_uq15 gate iovss iovss sg13_hv_nmos ad=2.596p pd=5.58u as=1.408p ps=5.04u w=4.4u l=0.6u
X43 pad_uq14 gate iovss iovss sg13_hv_nmos ad=2.596p pd=5.58u as=1.408p ps=5.04u w=4.4u l=0.6u
X44 pad_uq9 gate iovss iovss sg13_hv_nmos ad=2.596p pd=5.58u as=1.408p ps=5.04u w=4.4u l=0.6u
X45 iovss gate pad_uq18 iovss sg13_hv_nmos ad=1.408p pd=5.04u as=2.596p ps=5.58u w=4.4u l=0.6u
X46 pad_uq4 gate iovss iovss sg13_hv_nmos ad=2.596p pd=5.58u as=1.408p ps=5.04u w=4.4u l=0.6u
X47 iovss gate pad_uq3 iovss sg13_hv_nmos ad=1.408p pd=5.04u as=2.596p ps=5.58u w=4.4u l=0.6u
X48 iovss gate pad_uq9 iovss sg13_hv_nmos ad=1.408p pd=5.04u as=2.596p ps=5.58u w=4.4u l=0.6u
X49 pad_uq6 gate iovss iovss sg13_hv_nmos ad=2.596p pd=5.58u as=1.408p ps=5.04u w=4.4u l=0.6u
X50 pad_uq18 gate iovss iovss sg13_hv_nmos ad=2.596p pd=5.58u as=1.408p ps=5.04u w=4.4u l=0.6u
X51 pad_uq12 gate iovss iovss sg13_hv_nmos ad=2.596p pd=5.58u as=1.408p ps=5.04u w=4.4u l=0.6u
X52 pad_uq8 gate iovss iovss sg13_hv_nmos ad=2.596p pd=5.58u as=1.408p ps=5.04u w=4.4u l=0.6u
X53 iovss gate pad_uq5 iovss sg13_hv_nmos ad=1.408p pd=5.04u as=2.596p ps=5.58u w=4.4u l=0.6u
X54 iovss gate pad_uq6 iovss sg13_hv_nmos ad=1.408p pd=5.04u as=2.596p ps=5.58u w=4.4u l=0.6u
X55 iovss gate pad iovss sg13_hv_nmos ad=1.408p pd=5.04u as=2.596p ps=5.58u w=4.4u l=0.6u
X56 iovss gate pad_uq1 iovss sg13_hv_nmos ad=1.408p pd=5.04u as=2.596p ps=5.58u w=4.4u l=0.6u
X57 pad_uq19 gate iovss iovss sg13_hv_nmos ad=2.596p pd=5.58u as=1.408p ps=5.04u w=4.4u l=0.6u
X58 pad_uq5 gate iovss iovss sg13_hv_nmos ad=2.596p pd=5.58u as=1.408p ps=5.04u w=4.4u l=0.6u
X59 pad_uq9 gate iovss iovss sg13_hv_nmos ad=2.596p pd=5.58u as=1.408p ps=5.04u w=4.4u l=0.6u
X60 iovss gate pad_uq8 iovss sg13_hv_nmos ad=1.408p pd=5.04u as=2.596p ps=5.58u w=4.4u l=0.6u
X61 pad_uq11 gate iovss iovss sg13_hv_nmos ad=2.596p pd=5.58u as=1.408p ps=5.04u w=4.4u l=0.6u
X62 iovss gate pad_uq14 iovss sg13_hv_nmos ad=1.408p pd=5.04u as=2.596p ps=5.58u w=4.4u l=0.6u
X63 pad_uq2 gate iovss iovss sg13_hv_nmos ad=2.596p pd=5.58u as=1.408p ps=5.04u w=4.4u l=0.6u
X64 iovss gate pad_uq10 iovss sg13_hv_nmos ad=1.408p pd=5.04u as=2.596p ps=5.58u w=4.4u l=0.6u
X65 iovss gate pad_uq14 iovss sg13_hv_nmos ad=1.408p pd=5.04u as=2.596p ps=5.58u w=4.4u l=0.6u
X66 iovss gate pad_uq17 iovss sg13_hv_nmos ad=1.408p pd=5.04u as=2.596p ps=5.58u w=4.4u l=0.6u
X67 pad_uq17 gate iovss iovss sg13_hv_nmos ad=2.596p pd=5.58u as=1.408p ps=5.04u w=4.4u l=0.6u
X68 pad_uq0 gate iovss iovss sg13_hv_nmos ad=3.256p pd=10.28u as=1.408p ps=5.04u w=4.4u l=0.6u
X69 pad_uq7 gate iovss iovss sg13_hv_nmos ad=2.596p pd=5.58u as=1.408p ps=5.04u w=4.4u l=0.6u
X70 pad_uq18 gate iovss iovss sg13_hv_nmos ad=2.596p pd=5.58u as=1.408p ps=5.04u w=4.4u l=0.6u
X71 pad_uq5 gate iovss iovss sg13_hv_nmos ad=2.596p pd=5.58u as=1.408p ps=5.04u w=4.4u l=0.6u
X72 iovss gate pad_uq4 iovss sg13_hv_nmos ad=1.408p pd=5.04u as=2.596p ps=5.58u w=4.4u l=0.6u
X73 pad_uq1 gate iovss iovss sg13_hv_nmos ad=2.596p pd=5.58u as=1.408p ps=5.04u w=4.4u l=0.6u
X74 pad_uq13 gate iovss iovss sg13_hv_nmos ad=2.596p pd=5.58u as=1.408p ps=5.04u w=4.4u l=0.6u
X75 iovss gate pad_uq18 iovss sg13_hv_nmos ad=1.408p pd=5.04u as=2.596p ps=5.58u w=4.4u l=0.6u
X76 pad_uq3 gate iovss iovss sg13_hv_nmos ad=2.596p pd=5.58u as=1.408p ps=5.04u w=4.4u l=0.6u
X77 iovss gate pad_uq2 iovss sg13_hv_nmos ad=1.408p pd=5.04u as=2.596p ps=5.58u w=4.4u l=0.6u
X78 pad_uq14 gate iovss iovss sg13_hv_nmos ad=2.596p pd=5.58u as=1.408p ps=5.04u w=4.4u l=0.6u
X79 pad_uq6 gate iovss iovss sg13_hv_nmos ad=2.596p pd=5.58u as=1.408p ps=5.04u w=4.4u l=0.6u
X80 iovss gate pad_uq20 iovss sg13_hv_nmos ad=1.408p pd=5.04u as=2.596p ps=5.58u w=4.4u l=0.6u
X81 iovss gate pad_uq1 iovss sg13_hv_nmos ad=1.408p pd=5.04u as=2.596p ps=5.58u w=4.4u l=0.6u
X82 pad_uq20 gate iovss iovss sg13_hv_nmos ad=2.596p pd=5.58u as=2.068p ps=9.74u w=4.4u l=0.6u
X83 pad_uq10 gate iovss iovss sg13_hv_nmos ad=2.596p pd=5.58u as=1.408p ps=5.04u w=4.4u l=0.6u
X84 iovss gate pad_uq9 iovss sg13_hv_nmos ad=1.408p pd=5.04u as=2.596p ps=5.58u w=4.4u l=0.6u
X85 pad_uq16 gate iovss iovss sg13_hv_nmos ad=2.596p pd=5.58u as=1.408p ps=5.04u w=4.4u l=0.6u
X86 pad_uq12 gate iovss iovss sg13_hv_nmos ad=2.596p pd=5.58u as=1.408p ps=5.04u w=4.4u l=0.6u
X87 pad_uq19 gate iovss iovss sg13_hv_nmos ad=2.596p pd=5.58u as=1.408p ps=5.04u w=4.4u l=0.6u
X88 pad_uq18 gate iovss iovss sg13_hv_nmos ad=2.596p pd=5.58u as=1.408p ps=5.04u w=4.4u l=0.6u
X89 iovss gate pad_uq10 iovss sg13_hv_nmos ad=1.408p pd=5.04u as=2.596p ps=5.58u w=4.4u l=0.6u
X90 pad_uq8 gate iovss iovss sg13_hv_nmos ad=2.596p pd=5.58u as=1.408p ps=5.04u w=4.4u l=0.6u
X91 iovss gate pad_uq16 iovss sg13_hv_nmos ad=1.408p pd=5.04u as=2.596p ps=5.58u w=4.4u l=0.6u
X92 iovss gate pad iovss sg13_hv_nmos ad=1.408p pd=5.04u as=2.596p ps=5.58u w=4.4u l=0.6u
X93 iovss gate pad_uq12 iovss sg13_hv_nmos ad=1.408p pd=5.04u as=2.596p ps=5.58u w=4.4u l=0.6u
X94 iovss gate pad_uq3 iovss sg13_hv_nmos ad=1.408p pd=5.04u as=2.596p ps=5.58u w=4.4u l=0.6u
X95 pad_uq2 gate iovss iovss sg13_hv_nmos ad=2.596p pd=5.58u as=1.408p ps=5.04u w=4.4u l=0.6u
X96 pad gate iovss iovss sg13_hv_nmos ad=2.596p pd=5.58u as=1.408p ps=5.04u w=4.4u l=0.6u
X97 pad_uq2 gate iovss iovss sg13_hv_nmos ad=2.596p pd=5.58u as=1.408p ps=5.04u w=4.4u l=0.6u
X98 iovss gate pad_uq13 iovss sg13_hv_nmos ad=1.408p pd=5.04u as=2.596p ps=5.58u w=4.4u l=0.6u
X99 iovss gate pad_uq11 iovss sg13_hv_nmos ad=1.408p pd=5.04u as=2.596p ps=5.58u w=4.4u l=0.6u
X100 iovss gate pad_uq19 iovss sg13_hv_nmos ad=1.408p pd=5.04u as=2.596p ps=5.58u w=4.4u l=0.6u
X101 iovss gate pad_uq6 iovss sg13_hv_nmos ad=1.408p pd=5.04u as=2.596p ps=5.58u w=4.4u l=0.6u
X102 pad_uq15 gate iovss iovss sg13_hv_nmos ad=2.596p pd=5.58u as=1.408p ps=5.04u w=4.4u l=0.6u
X103 iovss gate pad_uq15 iovss sg13_hv_nmos ad=1.408p pd=5.04u as=2.596p ps=5.58u w=4.4u l=0.6u
X104 iovss gate pad_uq2 iovss sg13_hv_nmos ad=1.408p pd=5.04u as=2.596p ps=5.58u w=4.4u l=0.6u
X105 iovss gate pad_uq17 iovss sg13_hv_nmos ad=1.408p pd=5.04u as=2.596p ps=5.58u w=4.4u l=0.6u
X106 pad_uq10 gate iovss iovss sg13_hv_nmos ad=2.596p pd=5.58u as=1.408p ps=5.04u w=4.4u l=0.6u
X107 pad_uq15 gate iovss iovss sg13_hv_nmos ad=2.596p pd=5.58u as=1.408p ps=5.04u w=4.4u l=0.6u
X108 iovss gate pad_uq19 iovss sg13_hv_nmos ad=1.408p pd=5.04u as=2.596p ps=5.58u w=4.4u l=0.6u
X109 pad_uq17 gate iovss iovss sg13_hv_nmos ad=2.596p pd=5.58u as=1.408p ps=5.04u w=4.4u l=0.6u
X110 pad_uq13 gate iovss iovss sg13_hv_nmos ad=2.596p pd=5.58u as=1.408p ps=5.04u w=4.4u l=0.6u
X111 pad_uq7 gate iovss iovss sg13_hv_nmos ad=2.596p pd=5.58u as=1.408p ps=5.04u w=4.4u l=0.6u
X112 iovss gate pad_uq3 iovss sg13_hv_nmos ad=1.408p pd=5.04u as=2.596p ps=5.58u w=4.4u l=0.6u
X113 iovss gate pad_uq11 iovss sg13_hv_nmos ad=1.408p pd=5.04u as=2.596p ps=5.58u w=4.4u l=0.6u
X114 pad_uq6 gate iovss iovss sg13_hv_nmos ad=2.596p pd=5.58u as=1.408p ps=5.04u w=4.4u l=0.6u
X115 iovss gate dantenna l=0.48u w=0.48u
X116 iovss gate pad_uq7 iovss sg13_hv_nmos ad=1.408p pd=5.04u as=2.596p ps=5.58u w=4.4u l=0.6u
X117 iovss gate pad_uq5 iovss sg13_hv_nmos ad=1.408p pd=5.04u as=2.596p ps=5.58u w=4.4u l=0.6u
X118 iovss gate pad_uq1 iovss sg13_hv_nmos ad=1.408p pd=5.04u as=2.596p ps=5.58u w=4.4u l=0.6u
X119 iovss gate pad_uq8 iovss sg13_hv_nmos ad=1.408p pd=5.04u as=2.596p ps=5.58u w=4.4u l=0.6u
X120 pad_uq11 gate iovss iovss sg13_hv_nmos ad=2.596p pd=5.58u as=1.408p ps=5.04u w=4.4u l=0.6u
X121 iovss gate pad_uq14 iovss sg13_hv_nmos ad=1.408p pd=5.04u as=2.596p ps=5.58u w=4.4u l=0.6u
X122 iovss gate pad_uq7 iovss sg13_hv_nmos ad=1.408p pd=5.04u as=2.596p ps=5.58u w=4.4u l=0.6u
X123 iovss gate pad_uq16 iovss sg13_hv_nmos ad=1.408p pd=5.04u as=2.596p ps=5.58u w=4.4u l=0.6u
X124 pad_uq4 gate iovss iovss sg13_hv_nmos ad=2.596p pd=5.58u as=1.408p ps=5.04u w=4.4u l=0.6u
X125 iovss gate pad_uq10 iovss sg13_hv_nmos ad=1.408p pd=5.04u as=2.596p ps=5.58u w=4.4u l=0.6u
X126 pad_uq11 gate iovss iovss sg13_hv_nmos ad=2.596p pd=5.58u as=1.408p ps=5.04u w=4.4u l=0.6u
X127 iovss gate pad_uq12 iovss sg13_hv_nmos ad=1.408p pd=5.04u as=2.596p ps=5.58u w=4.4u l=0.6u
X128 iovss gate pad_uq15 iovss sg13_hv_nmos ad=1.408p pd=5.04u as=2.596p ps=5.58u w=4.4u l=0.6u
X129 pad_uq0 gate iovss iovss sg13_hv_nmos ad=3.256p pd=10.28u as=1.408p ps=5.04u w=4.4u l=0.6u
X130 pad_uq1 gate iovss iovss sg13_hv_nmos ad=2.596p pd=5.58u as=1.408p ps=5.04u w=4.4u l=0.6u
X131 pad_uq19 gate iovss iovss sg13_hv_nmos ad=2.596p pd=5.58u as=1.408p ps=5.04u w=4.4u l=0.6u
X132 iovss gate pad_uq4 iovss sg13_hv_nmos ad=1.408p pd=5.04u as=2.596p ps=5.58u w=4.4u l=0.6u
X133 pad_uq9 gate iovss iovss sg13_hv_nmos ad=2.596p pd=5.58u as=1.408p ps=5.04u w=4.4u l=0.6u
X134 iovss gate pad_uq6 iovss sg13_hv_nmos ad=1.408p pd=5.04u as=2.596p ps=5.58u w=4.4u l=0.6u
X135 iovss gate pad_uq8 iovss sg13_hv_nmos ad=1.408p pd=5.04u as=2.596p ps=5.58u w=4.4u l=0.6u
X136 pad_uq3 gate iovss iovss sg13_hv_nmos ad=2.596p pd=5.58u as=1.408p ps=5.04u w=4.4u l=0.6u
X137 iovss gate pad_uq2 iovss sg13_hv_nmos ad=1.408p pd=5.04u as=2.596p ps=5.58u w=4.4u l=0.6u
X138 pad_uq7 gate iovss iovss sg13_hv_nmos ad=2.596p pd=5.58u as=1.408p ps=5.04u w=4.4u l=0.6u
X139 iovss gate pad_uq16 iovss sg13_hv_nmos ad=1.408p pd=5.04u as=2.596p ps=5.58u w=4.4u l=0.6u
X140 pad_uq20 gate iovss iovss sg13_hv_nmos ad=2.596p pd=5.58u as=2.068p ps=9.74u w=4.4u l=0.6u
X141 iovss gate pad_uq9 iovss sg13_hv_nmos ad=1.408p pd=5.04u as=2.596p ps=5.58u w=4.4u l=0.6u
X142 pad_uq12 gate iovss iovss sg13_hv_nmos ad=2.596p pd=5.58u as=1.408p ps=5.04u w=4.4u l=0.6u
X143 pad_uq18 gate iovss iovss sg13_hv_nmos ad=2.596p pd=5.58u as=1.408p ps=5.04u w=4.4u l=0.6u